iidm/iidm-xml-converter/src/test/resources/sim1-TOPO.xiidm
<?xml version="1.0" encoding="UTF-8"?>
<iidm:network xmlns:iidm="http://www.itesla_project.eu/schema/iidm/1_0" id="sim1" caseDate="2013-01-15T18:45:00.000+01:00" forecastDistance="0" sourceFormat="test">
    <iidm:substation id="P1">
        <iidm:voltageLevel id="VLGEN">
            <iidm:busBreakerTopology>
                <iidm:bus id="NGEN" v="24.500000610351563" angle="2.3259763717651367"/>
            </iidm:busBreakerTopology>
            <iidm:generator id="GEN" bus="NGEN" connectableBus="NGEN"></iidm:generator>
        </iidm:voltageLevel>
        <iidm:voltageLevel id="VLHV1">
            <iidm:busBreakerTopology>
                <iidm:bus id="NHV1" v="402.1428451538086" angle="0.0"/>
            </iidm:busBreakerTopology>
        </iidm:voltageLevel>
        <iidm:twoWindingsTransformer id="NGEN_NHV1" bus1="NGEN" connectableBus1="NGEN" bus2="NHV1" connectableBus2="NHV1"/>
    </iidm:substation>
    <iidm:substation id="P2">
        <iidm:voltageLevel id="VLHV2">
            <iidm:busBreakerTopology>
                <iidm:bus id="NHV2" v="389.9526763916016" angle="-3.5063576698303223"/>
            </iidm:busBreakerTopology>
        </iidm:voltageLevel>
        <iidm:voltageLevel id="VLLOAD">
            <iidm:busBreakerTopology>
                <iidm:bus id="NLOAD" v="147.57861328125" angle="-9.614486694335938"/>
            </iidm:busBreakerTopology>
            <iidm:load id="LOAD" bus="NLOAD" connectableBus="NLOAD"/>
        </iidm:voltageLevel>
        <iidm:twoWindingsTransformer id="NHV2_NLOAD" bus1="NHV2" connectableBus1="NHV2" bus2="NLOAD" connectableBus2="NLOAD"></iidm:twoWindingsTransformer>
    </iidm:substation>
    <iidm:line id="NHV1_NHV2_1" bus1="NHV1" connectableBus1="NHV1" bus2="NHV2" connectableBus2="NHV2" p1="302.4440612792969" q1="98.74027252197266" p2="-300.43389892578125" q2="-137.18849182128906"/>
    <iidm:line id="NHV1_NHV2_2" bus1="NHV1" connectableBus1="NHV1" bus2="NHV2" connectableBus2="NHV2" p1="302.4440612792969" q1="98.74027252197266" p2="-300.43389892578125" q2="-137.18849182128906"/>
</iidm:network>
